9
C4SH4
C      -0.185373622431097      1.413361194074954      2.698168441297918
C      -0.258792759958311     -1.558150898308766      2.618004621108144
C       0.533936800039848     -2.303358338857227      0.029847346938161
C       0.575802689919167      2.464714417667128     -0.077369350809580
S       0.893513318456564     -0.028884986179457     -2.217402717437504
H       0.180878454026363      2.637036002264429      4.248472007227714
H      -0.341288977646241     -2.271892572512306      4.738672231380495
H       1.125103648616994      4.270942972292270     -1.049088577244401
H       1.488872161216350     -3.914778089227267     -0.324114645132312
